Circuit: * C:\cygwin64\home\admin\trafo_calc\Help_items\VoltSecond\VoltSecondSim1.asc

Per .tran options, skipping operating point for transient analysis.

Date: Sat Jan 21 14:56:23 2023
Total elapsed time: 0.144 seconds.

tnom = 27
temp = 27
method = modified trap
totiter = 2090
traniter = 2090
tranpoints = 1046
accept = 1046
rejected = 0
matrix size = 2
fillins = 0
solver = Normal
Matrix Compiler1:       2 opcodes  0.0/[0.0]/0.0
Matrix Compiler2: 96 bytes object code size  0.0/0.0/[0.0]

